/*--------------------------------*- C++ -*----------------------------------*\
  =========                 |
  \\      /  F ield         | OpenFOAM: The Open Source CFD Toolbox
   \\    /   O peration     | Website:  https://openfoam.org
    \\  /    A nd           | Version:  7
     \\/     M anipulation  |
\*---------------------------------------------------------------------------*/
FoamFile
{
    version     2.0;
    format      ascii;
    class       dictionary;
    location    "system";
    object      fvSchemes;
}
// * * * * * * * * * * * * * * * * * * * * * * * * * * * * * * * * * * * * * //

ddtSchemes
{
    default         steadyState;
}

gradSchemes
{
    default         cellLimited Gauss linear 0.333;
	grad(U)			cellLimited Gauss linear 1 ;
	grad(k)			cellLimited Gauss linear 1 ;
	grad(omega)		cellLimited Gauss linear 1 ;

}

divSchemes
{
    default         bounded Gauss linear ;
//	div(phi,U)		bounded Gauss linear ;
	div((nuEff*dev2(T(grad(U))))) Gauss linear ;
}

laplacianSchemes
{
    default         Gauss linear limited 0.5;
}

interpolationSchemes
{
    default         linear;
}

snGradSchemes
{
    default         limited 0.5;
}

wallDist
{
    method			meshWave;
	//correctWalls	true;
}


// ************************************************************************* //
