/*--------------------------------*- C++ -*----------------------------------*\
  =========                 |
  \\      /  F ield         | OpenFOAM: The Open Source CFD Toolbox
   \\    /   O peration     | Website:  https://openfoam.org
    \\  /    A nd           | Version:  7
     \\/     M anipulation  |
\*---------------------------------------------------------------------------*/
FoamFile
{
    version     2.0;
    format      ascii;
    class       dictionary;
    object      blockMeshDict;
}
// * * * * * * * * * * * * * * * * * * * * * * * * * * * * * * * * * * * * * //

vertices
(
    (-12 -12 -0.3)
    ( 12 -12 -0.3)
    ( 12  62 -0.3)
    (-12  62 -0.3)

    (-12 -12  0)
    ( 12 -12  0)
    ( 12  62  0)
    (-12  62  0)
);

blocks
(
    hex (0 1 2 3 4 5 6 7)
    (100 200 1)
    simpleGrading (1 1 1)
);

edges
(
);

boundary
(
	inlet
	{
		type inlet;
		faces
		(
			(0 1 5 4)
		);
	}


	outlet
	{
		type outlet;
		faces
		(
			(3 2 6 7)
		);
	}

	top
	{
		type empty;
		faces
		(
			(4 5 6 7)
		);
	}

	bottom
	{
		type empty;
		faces
		(
			(0 1 2 3)
		);
	}

	sides
	{
		type wall;
		faces
		(
			(1 2 5 6)
			(0 3 4 7)
		);
	}




);

mergePatchPairs
(
);

// ************************************************************************* //
