/*--------------------------------*- C++ -*----------------------------------*\
  =========                 |
  \\      /  F ield         | OpenFOAM: The Open Source CFD Toolbox
   \\    /   O peration     | Website:  https://openfoam.org
    \\  /    A nd           | Version:  7
     \\/     M anipulation  |
\*---------------------------------------------------------------------------*/
FoamFile
{
    version     2.0;
    format      ascii;
    class       dictionary;
    location    "system";
    object      fvSolution;
}
// * * * * * * * * * * * * * * * * * * * * * * * * * * * * * * * * * * * * * //

solvers
{
    p
    {
        solver          GAMG;
        tolerance       1e-06;
        relTol          0.01;
        smoother        GaussSeidel;
		nPreSweeps		0;
		nPostSweeps		2;
		cacheAgglomeration	on;
		agglomerator		faceAreaPair;
		nCellsInCoarsestLevel	100;
		mergeLevels		1;
		minIter			3;
    }

    U
	{
        solver          PBiCGStab;
		preconditioner	DILU;
        tolerance       1e-08;
        relTol          0.001;
		minIter			2;
    }

    "(k|omega)"
    {
        solver          PBiCGStab;
        preconditioner	DILU;
        tolerance       1e-8;
        relTol          0.001;
		minTer			2;
    }
	
	Phi
	{
		solver			GAMG;
		agglomerator	faceAreaPair;
		mergeLevels		1;
		cacheAgglomeration	true;
		nCellsInCoarsestLevel 200;
		tolerance		1e-8;
		relTol			0.001;
		smoother		GaussSeidel;
		nPreSweeps		0;
		nPostSweeps		2;
		nFinestSweeps	2;
		minIter			3;
	}

}

potentialFlow
{
    nNonOrthogonalCorrectors 10;
}

SIMPLE
{
    nNonOrthogonalCorrectors 2;
	
	pRefCell	0;
	pRefValue	0;
	
    consistent	on;
	
    residualControl
    {
        p               1e-4;
        U               1e-4;
		nuTilda			1e-4;
		k				1e-4;
		omega			1e-4;
    }
	
}

relaxationFactors
{
	fields
	{
		p	0.9;
		
	}
	
    equations
    {
        p               0.9;
        U               0.7;
        k               0.7;
        omega           0.7;
    }
}


// ************************************************************************* //
